Version 4
SHEET 1 1304 912
WIRE 480 -272 400 -272
WIRE 448 -224 384 -224
WIRE 304 -48 304 -272
WIRE 304 -48 -656 -48
WIRE 320 -48 304 -48
WIRE 480 -48 480 -272
WIRE 480 -48 416 -48
WIRE 720 -48 576 -48
WIRE -656 -32 -656 -48
WIRE 400 16 400 0
WIRE 448 16 448 -224
WIRE 448 16 400 16
WIRE 496 16 496 0
WIRE 496 16 448 16
WIRE -656 64 -656 48
WIRE -160 112 -272 112
WIRE -64 112 -160 112
WIRE 16 112 -64 112
WIRE 304 112 304 -48
WIRE 304 112 272 112
WIRE 16 192 -160 192
WIRE 448 192 448 16
WIRE 448 192 272 192
WIRE -304 224 -368 224
WIRE -160 224 -160 192
WIRE -160 224 -224 224
WIRE 16 272 0 272
WIRE 688 272 272 272
WIRE 720 272 720 -48
WIRE 720 272 688 272
WIRE 896 272 720 272
WIRE -304 304 -368 304
WIRE -160 304 -160 224
WIRE -160 304 -224 304
WIRE -160 352 -160 304
WIRE 480 352 272 352
WIRE 480 416 480 352
WIRE 480 416 432 416
WIRE 560 416 480 416
WIRE 304 432 272 432
WIRE -160 448 -160 432
WIRE 432 480 432 416
WIRE 560 480 560 416
WIRE -544 512 -656 512
WIRE -656 528 -656 512
WIRE -544 528 -544 512
WIRE 304 528 304 432
WIRE 304 528 -544 528
WIRE 352 528 304 528
WIRE 512 528 448 528
WIRE 544 528 512 528
WIRE 688 528 688 272
WIRE 688 528 640 528
WIRE 480 672 480 416
WIRE 480 672 384 672
WIRE 304 720 304 528
WIRE 512 720 512 528
WIRE 512 720 400 720
FLAG -656 64 0
FLAG -656 608 0
FLAG 896 352 0
FLAG -656 -48 IN
FLAG 0 272 0
FLAG -272 32 0
FLAG -160 448 0
FLAG -64 32 0
FLAG -160 32 0
FLAG -368 224 0
FLAG -368 304 0
SYMBOL voltage -656 -48 R0
WINDOW 123 0 0 Left 2
WINDOW 39 0 0 Left 2
SYMATTR Value 12.8
SYMATTR InstName V1
SYMBOL pmos 320 0 R270
WINDOW 0 56 53 VTop 2
WINDOW 3 -20 41 VBottom 2
SYMATTR InstName Q1
SYMATTR Value IRF7210
SYMBOL voltage -656 512 R0
WINDOW 123 0 0 Left 2
WINDOW 39 0 0 Left 2
SYMATTR InstName V2
SYMATTR Value 14.8
SYMBOL res 880 256 R0
SYMATTR InstName Rload
SYMATTR Value 1.12
SYMATTR SpiceLine pwr=100
SYMBOL SpecialFunctions\\LTC4416 144 272 R0
SYMATTR InstName U1
SYMBOL pmos 352 480 M90
WINDOW 0 55 35 VTop 2
WINDOW 3 -6 26 VBottom 2
SYMATTR InstName Q4
SYMATTR Value IRF7210
SYMBOL pmos 576 0 M270
WINDOW 0 56 53 VTop 2
WINDOW 3 -20 41 VBottom 2
SYMATTR InstName Q2
SYMATTR Value IRF7210
SYMBOL pmos 640 480 R90
WINDOW 0 55 35 VTop 2
WINDOW 3 -6 26 VBottom 2
SYMATTR InstName Q3
SYMATTR Value IRF7210
SYMBOL voltage -160 336 R0
WINDOW 123 0 0 Left 0
WINDOW 39 0 0 Left 0
SYMATTR InstName V3
SYMATTR Value 5
SYMBOL voltage -272 128 R180
WINDOW 0 24 96 Left 2
WINDOW 3 24 16 Left 2
WINDOW 123 0 0 Left 0
WINDOW 39 0 0 Left 0
SYMATTR InstName V4
SYMATTR Value 5
SYMBOL pmos 304 -224 R270
WINDOW 0 56 53 VTop 2
WINDOW 3 -20 41 VBottom 2
SYMATTR InstName Q5
SYMATTR Value IRF7210
SYMBOL pmos 304 672 M90
WINDOW 0 55 35 VTop 2
WINDOW 3 -6 26 VBottom 2
SYMATTR InstName Q6
SYMATTR Value IRF7210
SYMBOL res -80 16 R0
SYMATTR InstName R1
SYMATTR Value 4.7k
SYMBOL res -176 16 R0
SYMATTR InstName R2
SYMATTR Value 1Meg
SYMBOL res -208 208 R90
WINDOW 0 0 56 VBottom 2
WINDOW 3 32 56 VTop 2
SYMATTR InstName R3
SYMATTR Value 4.7k
SYMBOL res -208 288 R90
WINDOW 0 0 56 VBottom 2
WINDOW 3 32 56 VTop 2
SYMATTR InstName R4
SYMATTR Value 1Meg
TEXT -64 592 Left 2 !.tran 3.2 startup
