Version 4
SHEET 1 880 680
WIRE 448 -128 336 -128
WIRE 448 16 448 -48
WIRE -96 128 -464 128
WIRE 96 128 -96 128
WIRE 336 128 336 -128
WIRE 336 128 272 128
WIRE 96 144 96 128
WIRE 144 144 96 144
WIRE 384 160 272 160
WIRE 592 160 512 160
WIRE 128 176 96 176
WIRE 144 176 128 176
WIRE 512 192 512 160
WIRE 512 192 272 192
WIRE 96 208 96 176
WIRE 96 208 -96 208
WIRE -464 272 -464 208
WIRE 384 320 384 160
WIRE 592 320 592 240
WIRE 128 352 128 176
WIRE 128 512 128 416
FLAG 384 320 0
FLAG 592 320 0
FLAG 448 16 0
FLAG -464 272 0
FLAG 128 512 0
SYMBOL AutoGenerated\\INA139 208 160 R0
SYMATTR InstName U1
SYMBOL res 576 144 R0
SYMATTR InstName RL
SYMATTR Value 100k
SYMBOL res -112 112 R0
SYMATTR InstName RS
SYMATTR Value 0.3m
SYMBOL voltage -464 112 R0
WINDOW 123 0 0 Left 0
WINDOW 39 0 0 Left 0
SYMATTR InstName V1
SYMATTR Value 16.8V
SYMBOL voltage 448 -144 R0
WINDOW 123 0 0 Left 0
WINDOW 39 0 0 Left 0
SYMATTR InstName V2
SYMATTR Value 5
SYMBOL load 112 352 R0
WINDOW 123 0 0 Left 0
WINDOW 39 0 0 Left 0
SYMATTR InstName I2
SYMATTR Value 100
TEXT -496 536 Left 2 !.tran 0 10ms 0.00001s
