Version 4
SHEET 1 1128 680
WIRE 320 -80 320 -144
WIRE 320 64 320 0
WIRE 320 64 -128 64
WIRE 672 64 320 64
WIRE -128 80 -128 64
WIRE 672 80 672 64
WIRE 672 240 672 144
WIRE -128 256 -128 144
WIRE 672 336 672 320
WIRE -128 352 -128 336
FLAG 672 336 0
FLAG -128 352 0
FLAG 320 -144 0
SYMBOL voltage -128 240 R0
WINDOW 123 0 0 Left 0
WINDOW 39 0 0 Left 0
SYMATTR InstName LDO_1
SYMATTR Value 5
SYMBOL voltage 672 224 R0
WINDOW 123 0 0 Left 0
WINDOW 39 0 0 Left 0
SYMATTR InstName LDO_2
SYMATTR Value 5
SYMBOL res 304 -96 R0
SYMATTR InstName R_Load
SYMATTR Value 10
SYMBOL schottky -112 144 R180
WINDOW 0 24 64 Left 2
WINDOW 3 24 0 Left 2
SYMATTR InstName D1
SYMATTR Value 1N5817
SYMBOL schottky 688 144 R180
WINDOW 0 24 64 Left 2
WINDOW 3 24 0 Left 2
SYMATTR InstName D2
SYMATTR Value 1N5817
TEXT 216 392 Left 2 !.tran 0 100 0
