Version 4
SHEET 1 1128 680
WIRE -608 32 -752 32
WIRE -432 32 -544 32
WIRE 16 32 -176 32
WIRE 80 32 16 32
WIRE 80 128 80 32
WIRE 192 128 80 128
WIRE -608 272 -752 272
WIRE -432 272 -544 272
WIRE 16 272 -176 272
WIRE 80 272 80 128
WIRE 80 272 16 272
FLAG -752 352 0
FLAG -752 112 0
FLAG 16 336 0
FLAG 16 96 0
FLAG -304 128 0
FLAG -304 368 0
FLAG 192 208 0
SYMBOL PowerProducts\\LT1083-5 -304 32 R0
SYMATTR InstName U1
SYMBOL PowerProducts\\LT1083-5 -304 272 R0
SYMATTR InstName U2
SYMBOL voltage -752 16 R0
SYMATTR InstName V1
SYMBOL voltage -752 256 R0
SYMATTR InstName V2
SYMBOL schottky -608 48 R270
WINDOW 0 32 32 VTop 2
WINDOW 3 0 32 VBottom 2
SYMATTR InstName D1
SYMBOL schottky -608 288 R270
WINDOW 0 32 32 VTop 2
WINDOW 3 0 32 VBottom 2
SYMATTR InstName D2
SYMBOL zener 32 336 R180
WINDOW 0 24 64 Left 2
WINDOW 3 24 0 Left 2
SYMATTR InstName D3
SYMBOL zener 32 96 R180
WINDOW 0 24 64 Left 2
WINDOW 3 24 0 Left 2
SYMATTR InstName D4
SYMBOL res 176 112 R0
SYMATTR InstName R1
TEXT 216 392 Left 2 !.tran 0 100 0
