Version 4
SHEET 1 1304 1212
WIRE 480 -192 400 -192
WIRE -64 -48 -656 -48
WIRE 304 -48 -64 -48
WIRE 320 -48 320 -240
WIRE 320 -48 304 -48
WIRE 416 -48 416 -240
WIRE 720 -48 416 -48
WIRE -656 -32 -656 -48
WIRE 400 16 400 0
WIRE 448 16 400 16
WIRE 448 32 448 16
WIRE 480 32 480 -192
WIRE 480 32 448 32
WIRE -656 64 -656 48
WIRE -64 112 -64 -48
WIRE 16 112 -64 112
WIRE 304 112 304 -48
WIRE 304 112 272 112
WIRE 16 192 -64 192
WIRE 448 192 448 32
WIRE 448 192 272 192
WIRE 16 272 0 272
WIRE 688 272 272 272
WIRE 720 272 720 -48
WIRE 720 272 688 272
WIRE 896 272 720 272
WIRE 480 352 272 352
WIRE 480 416 480 352
WIRE 480 416 432 416
WIRE 512 416 480 416
WIRE 304 432 272 432
WIRE 432 480 432 416
WIRE -544 512 -656 512
WIRE -656 528 -656 512
WIRE -544 528 -544 512
WIRE 304 528 304 432
WIRE 304 528 -544 528
WIRE 352 528 304 528
WIRE 688 528 688 272
WIRE 688 528 448 528
WIRE 512 672 512 416
WIRE 512 672 432 672
WIRE 352 720 352 528
WIRE 448 720 448 528
FLAG -656 64 0
FLAG -656 608 0
FLAG 0 272 0
FLAG 896 352 0
FLAG -656 -48 IN
FLAG -64 192 0
SYMBOL voltage -656 -48 R0
WINDOW 123 0 0 Left 2
WINDOW 39 0 0 Left 2
SYMATTR Value PWL(0 16.8 1 0 2 0 3 12.8)
SYMATTR InstName V1
SYMBOL voltage -656 512 R0
WINDOW 123 0 0 Left 2
WINDOW 39 0 0 Left 2
SYMATTR InstName V2
SYMATTR Value 13.8
SYMBOL res 880 256 R0
SYMATTR InstName Rload
SYMATTR Value .56
SYMATTR SpiceLine pwr=100
SYMBOL SpecialFunctions\\LTC4416 144 272 R0
SYMATTR InstName U1
SYMBOL pmos 352 480 M90
SYMATTR InstName M1
SYMATTR Value Si7137DP
SYMBOL pmos 320 0 R270
SYMATTR InstName M2
SYMATTR Value Si7137DP
SYMBOL pmos 320 -192 R270
SYMATTR InstName M3
SYMATTR Value Si7137DP
SYMBOL pmos 352 672 M90
SYMATTR InstName M6
SYMATTR Value Si7137DP
TEXT -64 592 Left 2 !.tran 3.2 startup
